
---------- Begin Simulation Statistics ----------
sim_seconds                                  0.000077                       # Number of seconds simulated
sim_ticks                                    77362500                       # Number of ticks simulated
final_tick                                   77362500                       # Number of ticks from beginning of simulation (restored from checkpoints and never reset)
sim_freq                                 1000000000000                       # Frequency of simulated ticks
host_inst_rate                                 374036                       # Simulator instruction rate (inst/s)
host_op_rate                                   674854                       # Simulator op (including micro ops) rate (op/s)
host_tick_rate                             4968034722                       # Simulator tick rate (ticks/s)
host_mem_usage                                 663316                       # Number of bytes of host memory used
host_seconds                                     0.02                       # Real time elapsed on the host
sim_insts                                        5821                       # Number of instructions simulated
sim_ops                                         10506                       # Number of ops (including micro ops) simulated
system.voltage_domain.voltage                       1                       # Voltage in Volts
system.clk_domain.clock                          1000                       # Clock period in ticks
system.mem_ctrls.pwrStateResidencyTicks::UNDEFINED     77362500                       # Cumulative time (in ticks) in various power states
system.mem_ctrls.bytes_read::cpu.inst           14656                       # Number of bytes read from this memory
system.mem_ctrls.bytes_read::cpu.data            8512                       # Number of bytes read from this memory
system.mem_ctrls.bytes_read::total              23168                       # Number of bytes read from this memory
system.mem_ctrls.bytes_inst_read::cpu.inst        14656                       # Number of instructions bytes read from this memory
system.mem_ctrls.bytes_inst_read::total         14656                       # Number of instructions bytes read from this memory
system.mem_ctrls.num_reads::cpu.inst              229                       # Number of read requests responded to by this memory
system.mem_ctrls.num_reads::cpu.data              133                       # Number of read requests responded to by this memory
system.mem_ctrls.num_reads::total                 362                       # Number of read requests responded to by this memory
system.mem_ctrls.bw_read::cpu.inst          189445791                       # Total read bandwidth from this memory (bytes/s)
system.mem_ctrls.bw_read::cpu.data          110027468                       # Total read bandwidth from this memory (bytes/s)
system.mem_ctrls.bw_read::total             299473259                       # Total read bandwidth from this memory (bytes/s)
system.mem_ctrls.bw_inst_read::cpu.inst     189445791                       # Instruction read bandwidth from this memory (bytes/s)
system.mem_ctrls.bw_inst_read::total        189445791                       # Instruction read bandwidth from this memory (bytes/s)
system.mem_ctrls.bw_total::cpu.inst         189445791                       # Total bandwidth to/from this memory (bytes/s)
system.mem_ctrls.bw_total::cpu.data         110027468                       # Total bandwidth to/from this memory (bytes/s)
system.mem_ctrls.bw_total::total            299473259                       # Total bandwidth to/from this memory (bytes/s)
system.pwrStateResidencyTicks::UNDEFINED     77362500                       # Cumulative time (in ticks) in various power states
system.cpu_voltage_domain.voltage                   1                       # Voltage in Volts
system.cpu_clk_domain.clock                       500                       # Clock period in ticks
system.cpu.dtb.walker.pwrStateResidencyTicks::UNDEFINED     77362500                       # Cumulative time (in ticks) in various power states
system.cpu.dtb.rdAccesses                        1093                       # TLB accesses on read requests
system.cpu.dtb.wrAccesses                         943                       # TLB accesses on write requests
system.cpu.dtb.rdMisses                             9                       # TLB misses on read requests
system.cpu.dtb.wrMisses                             7                       # TLB misses on write requests
system.cpu.apic_clk_domain.clock                 8000                       # Clock period in ticks
system.cpu.interrupts.pwrStateResidencyTicks::UNDEFINED     77362500                       # Cumulative time (in ticks) in various power states
system.cpu.itb.walker.pwrStateResidencyTicks::UNDEFINED     77362500                       # Cumulative time (in ticks) in various power states
system.cpu.itb.rdAccesses                           0                       # TLB accesses on read requests
system.cpu.itb.wrAccesses                        7417                       # TLB accesses on write requests
system.cpu.itb.rdMisses                             0                       # TLB misses on read requests
system.cpu.itb.wrMisses                            31                       # TLB misses on write requests
system.cpu.workload.numSyscalls                    11                       # Number of system calls
system.cpu.pwrStateResidencyTicks::ON        77362500                       # Cumulative time (in ticks) in various power states
system.cpu.numCycles                           154725                       # number of cpu cycles simulated
system.cpu.numWorkItemsStarted                      0                       # number of work items this cpu started
system.cpu.numWorkItemsCompleted                    0                       # number of work items this cpu completed
system.cpu.committedInsts                        5821                       # Number of instructions committed
system.cpu.committedOps                         10506                       # Number of ops (including micro ops) committed
system.cpu.num_int_alu_accesses                 10392                       # Number of integer alu accesses
system.cpu.num_fp_alu_accesses                      0                       # Number of float alu accesses
system.cpu.num_vec_alu_accesses                     0                       # Number of vector alu accesses
system.cpu.num_func_calls                         225                       # number of times a function call or return occured
system.cpu.num_conditional_control_insts         1017                       # number of instructions that are conditional controls
system.cpu.num_int_insts                        10392                       # number of integer instructions
system.cpu.num_fp_insts                             0                       # number of float instructions
system.cpu.num_vec_insts                            0                       # number of vector instructions
system.cpu.num_int_register_reads               19623                       # number of times the integer registers were read
system.cpu.num_int_register_writes               8128                       # number of times the integer registers were written
system.cpu.num_fp_register_reads                    0                       # number of times the floating registers were read
system.cpu.num_fp_register_writes                   0                       # number of times the floating registers were written
system.cpu.num_vec_register_reads                   0                       # number of times the vector registers were read
system.cpu.num_vec_register_writes                  0                       # number of times the vector registers were written
system.cpu.num_cc_register_reads                 7202                       # number of times the CC registers were read
system.cpu.num_cc_register_writes                3918                       # number of times the CC registers were written
system.cpu.num_mem_refs                          2036                       # number of memory refs
system.cpu.num_load_insts                        1093                       # Number of load instructions
system.cpu.num_store_insts                        943                       # Number of store instructions
system.cpu.num_idle_cycles                          0                       # Number of idle cycles
system.cpu.num_busy_cycles                     154725                       # Number of busy cycles
system.cpu.not_idle_fraction                        1                       # Percentage of non-idle cycles
system.cpu.idle_fraction                            0                       # Percentage of idle cycles
system.cpu.Branches                              1341                       # Number of branches fetched
system.cpu.op_class::No_OpClass                     1      0.01%      0.01% # Class of executed instruction
system.cpu.op_class::IntAlu                      8455     80.48%     80.49% # Class of executed instruction
system.cpu.op_class::IntMult                        7      0.07%     80.55% # Class of executed instruction
system.cpu.op_class::IntDiv                         7      0.07%     80.62% # Class of executed instruction
system.cpu.op_class::FloatAdd                       0      0.00%     80.62% # Class of executed instruction
system.cpu.op_class::FloatCmp                       0      0.00%     80.62% # Class of executed instruction
system.cpu.op_class::FloatCvt                       0      0.00%     80.62% # Class of executed instruction
system.cpu.op_class::FloatMult                      0      0.00%     80.62% # Class of executed instruction
system.cpu.op_class::FloatMultAcc                   0      0.00%     80.62% # Class of executed instruction
system.cpu.op_class::FloatDiv                       0      0.00%     80.62% # Class of executed instruction
system.cpu.op_class::FloatMisc                      0      0.00%     80.62% # Class of executed instruction
system.cpu.op_class::FloatSqrt                      0      0.00%     80.62% # Class of executed instruction
system.cpu.op_class::SimdAdd                        0      0.00%     80.62% # Class of executed instruction
system.cpu.op_class::SimdAddAcc                     0      0.00%     80.62% # Class of executed instruction
system.cpu.op_class::SimdAlu                        0      0.00%     80.62% # Class of executed instruction
system.cpu.op_class::SimdCmp                        0      0.00%     80.62% # Class of executed instruction
system.cpu.op_class::SimdCvt                        0      0.00%     80.62% # Class of executed instruction
system.cpu.op_class::SimdMisc                       0      0.00%     80.62% # Class of executed instruction
system.cpu.op_class::SimdMult                       0      0.00%     80.62% # Class of executed instruction
system.cpu.op_class::SimdMultAcc                    0      0.00%     80.62% # Class of executed instruction
system.cpu.op_class::SimdShift                      0      0.00%     80.62% # Class of executed instruction
system.cpu.op_class::SimdShiftAcc                   0      0.00%     80.62% # Class of executed instruction
system.cpu.op_class::SimdSqrt                       0      0.00%     80.62% # Class of executed instruction
system.cpu.op_class::SimdFloatAdd                   0      0.00%     80.62% # Class of executed instruction
system.cpu.op_class::SimdFloatAlu                   0      0.00%     80.62% # Class of executed instruction
system.cpu.op_class::SimdFloatCmp                   0      0.00%     80.62% # Class of executed instruction
system.cpu.op_class::SimdFloatCvt                   0      0.00%     80.62% # Class of executed instruction
system.cpu.op_class::SimdFloatDiv                   0      0.00%     80.62% # Class of executed instruction
system.cpu.op_class::SimdFloatMisc                  0      0.00%     80.62% # Class of executed instruction
system.cpu.op_class::SimdFloatMult                  0      0.00%     80.62% # Class of executed instruction
system.cpu.op_class::SimdFloatMultAcc               0      0.00%     80.62% # Class of executed instruction
system.cpu.op_class::SimdFloatSqrt                  0      0.00%     80.62% # Class of executed instruction
system.cpu.op_class::MemRead                     1093     10.40%     91.02% # Class of executed instruction
system.cpu.op_class::MemWrite                     943      8.98%    100.00% # Class of executed instruction
system.cpu.op_class::FloatMemRead                   0      0.00%    100.00% # Class of executed instruction
system.cpu.op_class::FloatMemWrite                  0      0.00%    100.00% # Class of executed instruction
system.cpu.op_class::IprAccess                      0      0.00%    100.00% # Class of executed instruction
system.cpu.op_class::InstPrefetch                   0      0.00%    100.00% # Class of executed instruction
system.cpu.op_class::total                      10506                       # Class of executed instruction
system.cpu.dcache.tags.pwrStateResidencyTicks::UNDEFINED     77362500                       # Cumulative time (in ticks) in various power states
system.cpu.dcache.tags.tagsinuse            74.760679                       # Cycle average of tags in use
system.cpu.dcache.tags.total_refs                2036                       # Total number of references to valid blocks.
system.cpu.dcache.tags.sampled_refs               133                       # Sample count of references to valid blocks.
system.cpu.dcache.tags.avg_refs             15.308271                       # Average number of references to valid blocks.
system.cpu.dcache.tags.warmup_cycle            749500                       # Cycle when the warmup percentage was hit.
system.cpu.dcache.tags.occ_blocks::cpu.data    74.760679                       # Average occupied blocks per requestor
system.cpu.dcache.tags.occ_percent::cpu.data     0.073008                       # Average percentage of cache occupancy
system.cpu.dcache.tags.occ_percent::total     0.073008                       # Average percentage of cache occupancy
system.cpu.dcache.tags.occ_task_id_blocks::1024          133                       # Occupied blocks per task id
system.cpu.dcache.tags.age_task_id_blocks_1024::0           11                       # Occupied blocks per task id
system.cpu.dcache.tags.age_task_id_blocks_1024::1          122                       # Occupied blocks per task id
system.cpu.dcache.tags.occ_task_id_percent::1024     0.129883                       # Percentage of cache occupancy per task id
system.cpu.dcache.tags.tag_accesses              4205                       # Number of tag accesses
system.cpu.dcache.tags.data_accesses             4205                       # Number of data accesses
system.cpu.dcache.pwrStateResidencyTicks::UNDEFINED     77362500                       # Cumulative time (in ticks) in various power states
system.cpu.dcache.ReadReq_hits::cpu.data         1037                       # number of ReadReq hits
system.cpu.dcache.ReadReq_hits::total            1037                       # number of ReadReq hits
system.cpu.dcache.WriteReq_hits::cpu.data          866                       # number of WriteReq hits
system.cpu.dcache.WriteReq_hits::total            866                       # number of WriteReq hits
system.cpu.dcache.demand_hits::cpu.data          1903                       # number of demand (read+write) hits
system.cpu.dcache.demand_hits::total             1903                       # number of demand (read+write) hits
system.cpu.dcache.overall_hits::cpu.data         1903                       # number of overall hits
system.cpu.dcache.overall_hits::total            1903                       # number of overall hits
system.cpu.dcache.ReadReq_misses::cpu.data           56                       # number of ReadReq misses
system.cpu.dcache.ReadReq_misses::total            56                       # number of ReadReq misses
system.cpu.dcache.WriteReq_misses::cpu.data           77                       # number of WriteReq misses
system.cpu.dcache.WriteReq_misses::total           77                       # number of WriteReq misses
system.cpu.dcache.demand_misses::cpu.data          133                       # number of demand (read+write) misses
system.cpu.dcache.demand_misses::total            133                       # number of demand (read+write) misses
system.cpu.dcache.overall_misses::cpu.data          133                       # number of overall misses
system.cpu.dcache.overall_misses::total           133                       # number of overall misses
system.cpu.dcache.ReadReq_miss_latency::cpu.data     14218000                       # number of ReadReq miss cycles
system.cpu.dcache.ReadReq_miss_latency::total     14218000                       # number of ReadReq miss cycles
system.cpu.dcache.WriteReq_miss_latency::cpu.data     12203000                       # number of WriteReq miss cycles
system.cpu.dcache.WriteReq_miss_latency::total     12203000                       # number of WriteReq miss cycles
system.cpu.dcache.demand_miss_latency::cpu.data     26421000                       # number of demand (read+write) miss cycles
system.cpu.dcache.demand_miss_latency::total     26421000                       # number of demand (read+write) miss cycles
system.cpu.dcache.overall_miss_latency::cpu.data     26421000                       # number of overall miss cycles
system.cpu.dcache.overall_miss_latency::total     26421000                       # number of overall miss cycles
system.cpu.dcache.ReadReq_accesses::cpu.data         1093                       # number of ReadReq accesses(hits+misses)
system.cpu.dcache.ReadReq_accesses::total         1093                       # number of ReadReq accesses(hits+misses)
system.cpu.dcache.WriteReq_accesses::cpu.data          943                       # number of WriteReq accesses(hits+misses)
system.cpu.dcache.WriteReq_accesses::total          943                       # number of WriteReq accesses(hits+misses)
system.cpu.dcache.demand_accesses::cpu.data         2036                       # number of demand (read+write) accesses
system.cpu.dcache.demand_accesses::total         2036                       # number of demand (read+write) accesses
system.cpu.dcache.overall_accesses::cpu.data         2036                       # number of overall (read+write) accesses
system.cpu.dcache.overall_accesses::total         2036                       # number of overall (read+write) accesses
system.cpu.dcache.ReadReq_miss_rate::cpu.data     0.051235                       # miss rate for ReadReq accesses
system.cpu.dcache.ReadReq_miss_rate::total     0.051235                       # miss rate for ReadReq accesses
system.cpu.dcache.WriteReq_miss_rate::cpu.data     0.081654                       # miss rate for WriteReq accesses
system.cpu.dcache.WriteReq_miss_rate::total     0.081654                       # miss rate for WriteReq accesses
system.cpu.dcache.demand_miss_rate::cpu.data     0.065324                       # miss rate for demand accesses
system.cpu.dcache.demand_miss_rate::total     0.065324                       # miss rate for demand accesses
system.cpu.dcache.overall_miss_rate::cpu.data     0.065324                       # miss rate for overall accesses
system.cpu.dcache.overall_miss_rate::total     0.065324                       # miss rate for overall accesses
system.cpu.dcache.ReadReq_avg_miss_latency::cpu.data 253892.857143                       # average ReadReq miss latency
system.cpu.dcache.ReadReq_avg_miss_latency::total 253892.857143                       # average ReadReq miss latency
system.cpu.dcache.WriteReq_avg_miss_latency::cpu.data 158480.519481                       # average WriteReq miss latency
system.cpu.dcache.WriteReq_avg_miss_latency::total 158480.519481                       # average WriteReq miss latency
system.cpu.dcache.demand_avg_miss_latency::cpu.data 198654.135338                       # average overall miss latency
system.cpu.dcache.demand_avg_miss_latency::total 198654.135338                       # average overall miss latency
system.cpu.dcache.overall_avg_miss_latency::cpu.data 198654.135338                       # average overall miss latency
system.cpu.dcache.overall_avg_miss_latency::total 198654.135338                       # average overall miss latency
system.cpu.dcache.blocked_cycles::no_mshrs            0                       # number of cycles access was blocked
system.cpu.dcache.blocked_cycles::no_targets            0                       # number of cycles access was blocked
system.cpu.dcache.blocked::no_mshrs                 0                       # number of cycles access was blocked
system.cpu.dcache.blocked::no_targets               0                       # number of cycles access was blocked
system.cpu.dcache.avg_blocked_cycles::no_mshrs          nan                       # average number of cycles each access was blocked
system.cpu.dcache.avg_blocked_cycles::no_targets          nan                       # average number of cycles each access was blocked
system.cpu.dcache.ReadReq_mshr_misses::cpu.data           56                       # number of ReadReq MSHR misses
system.cpu.dcache.ReadReq_mshr_misses::total           56                       # number of ReadReq MSHR misses
system.cpu.dcache.WriteReq_mshr_misses::cpu.data           77                       # number of WriteReq MSHR misses
system.cpu.dcache.WriteReq_mshr_misses::total           77                       # number of WriteReq MSHR misses
system.cpu.dcache.demand_mshr_misses::cpu.data          133                       # number of demand (read+write) MSHR misses
system.cpu.dcache.demand_mshr_misses::total          133                       # number of demand (read+write) MSHR misses
system.cpu.dcache.overall_mshr_misses::cpu.data          133                       # number of overall MSHR misses
system.cpu.dcache.overall_mshr_misses::total          133                       # number of overall MSHR misses
system.cpu.dcache.ReadReq_mshr_miss_latency::cpu.data     14162000                       # number of ReadReq MSHR miss cycles
system.cpu.dcache.ReadReq_mshr_miss_latency::total     14162000                       # number of ReadReq MSHR miss cycles
system.cpu.dcache.WriteReq_mshr_miss_latency::cpu.data     12126000                       # number of WriteReq MSHR miss cycles
system.cpu.dcache.WriteReq_mshr_miss_latency::total     12126000                       # number of WriteReq MSHR miss cycles
system.cpu.dcache.demand_mshr_miss_latency::cpu.data     26288000                       # number of demand (read+write) MSHR miss cycles
system.cpu.dcache.demand_mshr_miss_latency::total     26288000                       # number of demand (read+write) MSHR miss cycles
system.cpu.dcache.overall_mshr_miss_latency::cpu.data     26288000                       # number of overall MSHR miss cycles
system.cpu.dcache.overall_mshr_miss_latency::total     26288000                       # number of overall MSHR miss cycles
system.cpu.dcache.ReadReq_mshr_miss_rate::cpu.data     0.051235                       # mshr miss rate for ReadReq accesses
system.cpu.dcache.ReadReq_mshr_miss_rate::total     0.051235                       # mshr miss rate for ReadReq accesses
system.cpu.dcache.WriteReq_mshr_miss_rate::cpu.data     0.081654                       # mshr miss rate for WriteReq accesses
system.cpu.dcache.WriteReq_mshr_miss_rate::total     0.081654                       # mshr miss rate for WriteReq accesses
system.cpu.dcache.demand_mshr_miss_rate::cpu.data     0.065324                       # mshr miss rate for demand accesses
system.cpu.dcache.demand_mshr_miss_rate::total     0.065324                       # mshr miss rate for demand accesses
system.cpu.dcache.overall_mshr_miss_rate::cpu.data     0.065324                       # mshr miss rate for overall accesses
system.cpu.dcache.overall_mshr_miss_rate::total     0.065324                       # mshr miss rate for overall accesses
system.cpu.dcache.ReadReq_avg_mshr_miss_latency::cpu.data 252892.857143                       # average ReadReq mshr miss latency
system.cpu.dcache.ReadReq_avg_mshr_miss_latency::total 252892.857143                       # average ReadReq mshr miss latency
system.cpu.dcache.WriteReq_avg_mshr_miss_latency::cpu.data 157480.519481                       # average WriteReq mshr miss latency
system.cpu.dcache.WriteReq_avg_mshr_miss_latency::total 157480.519481                       # average WriteReq mshr miss latency
system.cpu.dcache.demand_avg_mshr_miss_latency::cpu.data 197654.135338                       # average overall mshr miss latency
system.cpu.dcache.demand_avg_mshr_miss_latency::total 197654.135338                       # average overall mshr miss latency
system.cpu.dcache.overall_avg_mshr_miss_latency::cpu.data 197654.135338                       # average overall mshr miss latency
system.cpu.dcache.overall_avg_mshr_miss_latency::total 197654.135338                       # average overall mshr miss latency
system.cpu.dcache.replacements                      0                       # number of replacements
system.cpu.dtb_walker_cache.tags.pwrStateResidencyTicks::UNDEFINED     77362500                       # Cumulative time (in ticks) in various power states
system.cpu.dtb_walker_cache.tags.tagsinuse            0                       # Cycle average of tags in use
system.cpu.dtb_walker_cache.tags.total_refs            0                       # Total number of references to valid blocks.
system.cpu.dtb_walker_cache.tags.sampled_refs            0                       # Sample count of references to valid blocks.
system.cpu.dtb_walker_cache.tags.avg_refs          nan                       # Average number of references to valid blocks.
system.cpu.dtb_walker_cache.tags.warmup_cycle            0                       # Cycle when the warmup percentage was hit.
system.cpu.dtb_walker_cache.tags.tag_accesses            0                       # Number of tag accesses
system.cpu.dtb_walker_cache.tags.data_accesses            0                       # Number of data accesses
system.cpu.dtb_walker_cache.pwrStateResidencyTicks::UNDEFINED     77362500                       # Cumulative time (in ticks) in various power states
system.cpu.dtb_walker_cache.blocked_cycles::no_mshrs            0                       # number of cycles access was blocked
system.cpu.dtb_walker_cache.blocked_cycles::no_targets            0                       # number of cycles access was blocked
system.cpu.dtb_walker_cache.blocked::no_mshrs            0                       # number of cycles access was blocked
system.cpu.dtb_walker_cache.blocked::no_targets            0                       # number of cycles access was blocked
system.cpu.dtb_walker_cache.avg_blocked_cycles::no_mshrs          nan                       # average number of cycles each access was blocked
system.cpu.dtb_walker_cache.avg_blocked_cycles::no_targets          nan                       # average number of cycles each access was blocked
system.cpu.dtb_walker_cache.replacements            0                       # number of replacements
system.cpu.icache.tags.pwrStateResidencyTicks::UNDEFINED     77362500                       # Cumulative time (in ticks) in various power states
system.cpu.icache.tags.tagsinuse            95.007260                       # Cycle average of tags in use
system.cpu.icache.tags.total_refs                7417                       # Total number of references to valid blocks.
system.cpu.icache.tags.sampled_refs               230                       # Sample count of references to valid blocks.
system.cpu.icache.tags.avg_refs             32.247826                       # Average number of references to valid blocks.
system.cpu.icache.tags.warmup_cycle            429500                       # Cycle when the warmup percentage was hit.
system.cpu.icache.tags.occ_blocks::cpu.inst    95.007260                       # Average occupied blocks per requestor
system.cpu.icache.tags.occ_percent::cpu.inst     0.185561                       # Average percentage of cache occupancy
system.cpu.icache.tags.occ_percent::total     0.185561                       # Average percentage of cache occupancy
system.cpu.icache.tags.occ_task_id_blocks::1024          217                       # Occupied blocks per task id
system.cpu.icache.tags.age_task_id_blocks_1024::0           40                       # Occupied blocks per task id
system.cpu.icache.tags.age_task_id_blocks_1024::1          177                       # Occupied blocks per task id
system.cpu.icache.tags.occ_task_id_percent::1024     0.423828                       # Percentage of cache occupancy per task id
system.cpu.icache.tags.tag_accesses             15064                       # Number of tag accesses
system.cpu.icache.tags.data_accesses            15064                       # Number of data accesses
system.cpu.icache.pwrStateResidencyTicks::UNDEFINED     77362500                       # Cumulative time (in ticks) in various power states
system.cpu.icache.ReadReq_hits::cpu.inst         7187                       # number of ReadReq hits
system.cpu.icache.ReadReq_hits::total            7187                       # number of ReadReq hits
system.cpu.icache.demand_hits::cpu.inst          7187                       # number of demand (read+write) hits
system.cpu.icache.demand_hits::total             7187                       # number of demand (read+write) hits
system.cpu.icache.overall_hits::cpu.inst         7187                       # number of overall hits
system.cpu.icache.overall_hits::total            7187                       # number of overall hits
system.cpu.icache.ReadReq_misses::cpu.inst          230                       # number of ReadReq misses
system.cpu.icache.ReadReq_misses::total           230                       # number of ReadReq misses
system.cpu.icache.demand_misses::cpu.inst          230                       # number of demand (read+write) misses
system.cpu.icache.demand_misses::total            230                       # number of demand (read+write) misses
system.cpu.icache.overall_misses::cpu.inst          230                       # number of overall misses
system.cpu.icache.overall_misses::total           230                       # number of overall misses
system.cpu.icache.ReadReq_miss_latency::cpu.inst     41852500                       # number of ReadReq miss cycles
system.cpu.icache.ReadReq_miss_latency::total     41852500                       # number of ReadReq miss cycles
system.cpu.icache.demand_miss_latency::cpu.inst     41852500                       # number of demand (read+write) miss cycles
system.cpu.icache.demand_miss_latency::total     41852500                       # number of demand (read+write) miss cycles
system.cpu.icache.overall_miss_latency::cpu.inst     41852500                       # number of overall miss cycles
system.cpu.icache.overall_miss_latency::total     41852500                       # number of overall miss cycles
system.cpu.icache.ReadReq_accesses::cpu.inst         7417                       # number of ReadReq accesses(hits+misses)
system.cpu.icache.ReadReq_accesses::total         7417                       # number of ReadReq accesses(hits+misses)
system.cpu.icache.demand_accesses::cpu.inst         7417                       # number of demand (read+write) accesses
system.cpu.icache.demand_accesses::total         7417                       # number of demand (read+write) accesses
system.cpu.icache.overall_accesses::cpu.inst         7417                       # number of overall (read+write) accesses
system.cpu.icache.overall_accesses::total         7417                       # number of overall (read+write) accesses
system.cpu.icache.ReadReq_miss_rate::cpu.inst     0.031010                       # miss rate for ReadReq accesses
system.cpu.icache.ReadReq_miss_rate::total     0.031010                       # miss rate for ReadReq accesses
system.cpu.icache.demand_miss_rate::cpu.inst     0.031010                       # miss rate for demand accesses
system.cpu.icache.demand_miss_rate::total     0.031010                       # miss rate for demand accesses
system.cpu.icache.overall_miss_rate::cpu.inst     0.031010                       # miss rate for overall accesses
system.cpu.icache.overall_miss_rate::total     0.031010                       # miss rate for overall accesses
system.cpu.icache.ReadReq_avg_miss_latency::cpu.inst 181967.391304                       # average ReadReq miss latency
system.cpu.icache.ReadReq_avg_miss_latency::total 181967.391304                       # average ReadReq miss latency
system.cpu.icache.demand_avg_miss_latency::cpu.inst 181967.391304                       # average overall miss latency
system.cpu.icache.demand_avg_miss_latency::total 181967.391304                       # average overall miss latency
system.cpu.icache.overall_avg_miss_latency::cpu.inst 181967.391304                       # average overall miss latency
system.cpu.icache.overall_avg_miss_latency::total 181967.391304                       # average overall miss latency
system.cpu.icache.blocked_cycles::no_mshrs            0                       # number of cycles access was blocked
system.cpu.icache.blocked_cycles::no_targets            0                       # number of cycles access was blocked
system.cpu.icache.blocked::no_mshrs                 0                       # number of cycles access was blocked
system.cpu.icache.blocked::no_targets               0                       # number of cycles access was blocked
system.cpu.icache.avg_blocked_cycles::no_mshrs          nan                       # average number of cycles each access was blocked
system.cpu.icache.avg_blocked_cycles::no_targets          nan                       # average number of cycles each access was blocked
system.cpu.icache.writebacks::writebacks           13                       # number of writebacks
system.cpu.icache.writebacks::total                13                       # number of writebacks
system.cpu.icache.ReadReq_mshr_misses::cpu.inst          230                       # number of ReadReq MSHR misses
system.cpu.icache.ReadReq_mshr_misses::total          230                       # number of ReadReq MSHR misses
system.cpu.icache.demand_mshr_misses::cpu.inst          230                       # number of demand (read+write) MSHR misses
system.cpu.icache.demand_mshr_misses::total          230                       # number of demand (read+write) MSHR misses
system.cpu.icache.overall_mshr_misses::cpu.inst          230                       # number of overall MSHR misses
system.cpu.icache.overall_mshr_misses::total          230                       # number of overall MSHR misses
system.cpu.icache.ReadReq_mshr_miss_latency::cpu.inst     41622500                       # number of ReadReq MSHR miss cycles
system.cpu.icache.ReadReq_mshr_miss_latency::total     41622500                       # number of ReadReq MSHR miss cycles
system.cpu.icache.demand_mshr_miss_latency::cpu.inst     41622500                       # number of demand (read+write) MSHR miss cycles
system.cpu.icache.demand_mshr_miss_latency::total     41622500                       # number of demand (read+write) MSHR miss cycles
system.cpu.icache.overall_mshr_miss_latency::cpu.inst     41622500                       # number of overall MSHR miss cycles
system.cpu.icache.overall_mshr_miss_latency::total     41622500                       # number of overall MSHR miss cycles
system.cpu.icache.ReadReq_mshr_miss_rate::cpu.inst     0.031010                       # mshr miss rate for ReadReq accesses
system.cpu.icache.ReadReq_mshr_miss_rate::total     0.031010                       # mshr miss rate for ReadReq accesses
system.cpu.icache.demand_mshr_miss_rate::cpu.inst     0.031010                       # mshr miss rate for demand accesses
system.cpu.icache.demand_mshr_miss_rate::total     0.031010                       # mshr miss rate for demand accesses
system.cpu.icache.overall_mshr_miss_rate::cpu.inst     0.031010                       # mshr miss rate for overall accesses
system.cpu.icache.overall_mshr_miss_rate::total     0.031010                       # mshr miss rate for overall accesses
system.cpu.icache.ReadReq_avg_mshr_miss_latency::cpu.inst 180967.391304                       # average ReadReq mshr miss latency
system.cpu.icache.ReadReq_avg_mshr_miss_latency::total 180967.391304                       # average ReadReq mshr miss latency
system.cpu.icache.demand_avg_mshr_miss_latency::cpu.inst 180967.391304                       # average overall mshr miss latency
system.cpu.icache.demand_avg_mshr_miss_latency::total 180967.391304                       # average overall mshr miss latency
system.cpu.icache.overall_avg_mshr_miss_latency::cpu.inst 180967.391304                       # average overall mshr miss latency
system.cpu.icache.overall_avg_mshr_miss_latency::total 180967.391304                       # average overall mshr miss latency
system.cpu.icache.replacements                     13                       # number of replacements
system.cpu.itb_walker_cache.tags.pwrStateResidencyTicks::UNDEFINED     77362500                       # Cumulative time (in ticks) in various power states
system.cpu.itb_walker_cache.tags.tagsinuse            0                       # Cycle average of tags in use
system.cpu.itb_walker_cache.tags.total_refs            0                       # Total number of references to valid blocks.
system.cpu.itb_walker_cache.tags.sampled_refs            0                       # Sample count of references to valid blocks.
system.cpu.itb_walker_cache.tags.avg_refs          nan                       # Average number of references to valid blocks.
system.cpu.itb_walker_cache.tags.warmup_cycle            0                       # Cycle when the warmup percentage was hit.
system.cpu.itb_walker_cache.tags.tag_accesses            0                       # Number of tag accesses
system.cpu.itb_walker_cache.tags.data_accesses            0                       # Number of data accesses
system.cpu.itb_walker_cache.pwrStateResidencyTicks::UNDEFINED     77362500                       # Cumulative time (in ticks) in various power states
system.cpu.itb_walker_cache.blocked_cycles::no_mshrs            0                       # number of cycles access was blocked
system.cpu.itb_walker_cache.blocked_cycles::no_targets            0                       # number of cycles access was blocked
system.cpu.itb_walker_cache.blocked::no_mshrs            0                       # number of cycles access was blocked
system.cpu.itb_walker_cache.blocked::no_targets            0                       # number of cycles access was blocked
system.cpu.itb_walker_cache.avg_blocked_cycles::no_mshrs          nan                       # average number of cycles each access was blocked
system.cpu.itb_walker_cache.avg_blocked_cycles::no_targets          nan                       # average number of cycles each access was blocked
system.cpu.itb_walker_cache.replacements            0                       # number of replacements
system.l2.tags.pwrStateResidencyTicks::UNDEFINED     77362500                       # Cumulative time (in ticks) in various power states
system.l2.tags.tagsinuse                   175.139624                       # Cycle average of tags in use
system.l2.tags.total_refs                         376                       # Total number of references to valid blocks.
system.l2.tags.sampled_refs                       362                       # Sample count of references to valid blocks.
system.l2.tags.avg_refs                      1.038674                       # Average number of references to valid blocks.
system.l2.tags.warmup_cycle                    419000                       # Cycle when the warmup percentage was hit.
system.l2.tags.occ_blocks::cpu.inst        100.360894                       # Average occupied blocks per requestor
system.l2.tags.occ_blocks::cpu.data         74.778731                       # Average occupied blocks per requestor
system.l2.tags.occ_percent::cpu.inst         0.003063                       # Average percentage of cache occupancy
system.l2.tags.occ_percent::cpu.data         0.002282                       # Average percentage of cache occupancy
system.l2.tags.occ_percent::total            0.005345                       # Average percentage of cache occupancy
system.l2.tags.occ_task_id_blocks::1024           362                       # Occupied blocks per task id
system.l2.tags.age_task_id_blocks_1024::0           51                       # Occupied blocks per task id
system.l2.tags.age_task_id_blocks_1024::1          311                       # Occupied blocks per task id
system.l2.tags.occ_task_id_percent::1024     0.011047                       # Percentage of cache occupancy per task id
system.l2.tags.tag_accesses                      3370                       # Number of tag accesses
system.l2.tags.data_accesses                     3370                       # Number of data accesses
system.l2.pwrStateResidencyTicks::UNDEFINED     77362500                       # Cumulative time (in ticks) in various power states
system.l2.WritebackClean_hits::writebacks           13                       # number of WritebackClean hits
system.l2.WritebackClean_hits::total               13                       # number of WritebackClean hits
system.l2.ReadCleanReq_hits::cpu.inst               1                       # number of ReadCleanReq hits
system.l2.ReadCleanReq_hits::total                  1                       # number of ReadCleanReq hits
system.l2.demand_hits::cpu.inst                     1                       # number of demand (read+write) hits
system.l2.demand_hits::total                        1                       # number of demand (read+write) hits
system.l2.overall_hits::cpu.inst                    1                       # number of overall hits
system.l2.overall_hits::total                       1                       # number of overall hits
system.l2.ReadExReq_misses::cpu.data               77                       # number of ReadExReq misses
system.l2.ReadExReq_misses::total                  77                       # number of ReadExReq misses
system.l2.ReadCleanReq_misses::cpu.inst           229                       # number of ReadCleanReq misses
system.l2.ReadCleanReq_misses::total              229                       # number of ReadCleanReq misses
system.l2.ReadSharedReq_misses::cpu.data           56                       # number of ReadSharedReq misses
system.l2.ReadSharedReq_misses::total              56                       # number of ReadSharedReq misses
system.l2.demand_misses::cpu.inst                 229                       # number of demand (read+write) misses
system.l2.demand_misses::cpu.data                 133                       # number of demand (read+write) misses
system.l2.demand_misses::total                    362                       # number of demand (read+write) misses
system.l2.overall_misses::cpu.inst                229                       # number of overall misses
system.l2.overall_misses::cpu.data                133                       # number of overall misses
system.l2.overall_misses::total                   362                       # number of overall misses
system.l2.ReadExReq_miss_latency::cpu.data     12010500                       # number of ReadExReq miss cycles
system.l2.ReadExReq_miss_latency::total      12010500                       # number of ReadExReq miss cycles
system.l2.ReadCleanReq_miss_latency::cpu.inst     41265500                       # number of ReadCleanReq miss cycles
system.l2.ReadCleanReq_miss_latency::total     41265500                       # number of ReadCleanReq miss cycles
system.l2.ReadSharedReq_miss_latency::cpu.data     14078000                       # number of ReadSharedReq miss cycles
system.l2.ReadSharedReq_miss_latency::total     14078000                       # number of ReadSharedReq miss cycles
system.l2.demand_miss_latency::cpu.inst      41265500                       # number of demand (read+write) miss cycles
system.l2.demand_miss_latency::cpu.data      26088500                       # number of demand (read+write) miss cycles
system.l2.demand_miss_latency::total         67354000                       # number of demand (read+write) miss cycles
system.l2.overall_miss_latency::cpu.inst     41265500                       # number of overall miss cycles
system.l2.overall_miss_latency::cpu.data     26088500                       # number of overall miss cycles
system.l2.overall_miss_latency::total        67354000                       # number of overall miss cycles
system.l2.WritebackClean_accesses::writebacks           13                       # number of WritebackClean accesses(hits+misses)
system.l2.WritebackClean_accesses::total           13                       # number of WritebackClean accesses(hits+misses)
system.l2.ReadExReq_accesses::cpu.data             77                       # number of ReadExReq accesses(hits+misses)
system.l2.ReadExReq_accesses::total                77                       # number of ReadExReq accesses(hits+misses)
system.l2.ReadCleanReq_accesses::cpu.inst          230                       # number of ReadCleanReq accesses(hits+misses)
system.l2.ReadCleanReq_accesses::total            230                       # number of ReadCleanReq accesses(hits+misses)
system.l2.ReadSharedReq_accesses::cpu.data           56                       # number of ReadSharedReq accesses(hits+misses)
system.l2.ReadSharedReq_accesses::total            56                       # number of ReadSharedReq accesses(hits+misses)
system.l2.demand_accesses::cpu.inst               230                       # number of demand (read+write) accesses
system.l2.demand_accesses::cpu.data               133                       # number of demand (read+write) accesses
system.l2.demand_accesses::total                  363                       # number of demand (read+write) accesses
system.l2.overall_accesses::cpu.inst              230                       # number of overall (read+write) accesses
system.l2.overall_accesses::cpu.data              133                       # number of overall (read+write) accesses
system.l2.overall_accesses::total                 363                       # number of overall (read+write) accesses
system.l2.ReadExReq_miss_rate::cpu.data             1                       # miss rate for ReadExReq accesses
system.l2.ReadExReq_miss_rate::total                1                       # miss rate for ReadExReq accesses
system.l2.ReadCleanReq_miss_rate::cpu.inst     0.995652                       # miss rate for ReadCleanReq accesses
system.l2.ReadCleanReq_miss_rate::total      0.995652                       # miss rate for ReadCleanReq accesses
system.l2.ReadSharedReq_miss_rate::cpu.data            1                       # miss rate for ReadSharedReq accesses
system.l2.ReadSharedReq_miss_rate::total            1                       # miss rate for ReadSharedReq accesses
system.l2.demand_miss_rate::cpu.inst         0.995652                       # miss rate for demand accesses
system.l2.demand_miss_rate::cpu.data                1                       # miss rate for demand accesses
system.l2.demand_miss_rate::total            0.997245                       # miss rate for demand accesses
system.l2.overall_miss_rate::cpu.inst        0.995652                       # miss rate for overall accesses
system.l2.overall_miss_rate::cpu.data               1                       # miss rate for overall accesses
system.l2.overall_miss_rate::total           0.997245                       # miss rate for overall accesses
system.l2.ReadExReq_avg_miss_latency::cpu.data 155980.519481                       # average ReadExReq miss latency
system.l2.ReadExReq_avg_miss_latency::total 155980.519481                       # average ReadExReq miss latency
system.l2.ReadCleanReq_avg_miss_latency::cpu.inst 180198.689956                       # average ReadCleanReq miss latency
system.l2.ReadCleanReq_avg_miss_latency::total 180198.689956                       # average ReadCleanReq miss latency
system.l2.ReadSharedReq_avg_miss_latency::cpu.data 251392.857143                       # average ReadSharedReq miss latency
system.l2.ReadSharedReq_avg_miss_latency::total 251392.857143                       # average ReadSharedReq miss latency
system.l2.demand_avg_miss_latency::cpu.inst 180198.689956                       # average overall miss latency
system.l2.demand_avg_miss_latency::cpu.data 196154.135338                       # average overall miss latency
system.l2.demand_avg_miss_latency::total 186060.773481                       # average overall miss latency
system.l2.overall_avg_miss_latency::cpu.inst 180198.689956                       # average overall miss latency
system.l2.overall_avg_miss_latency::cpu.data 196154.135338                       # average overall miss latency
system.l2.overall_avg_miss_latency::total 186060.773481                       # average overall miss latency
system.l2.blocked_cycles::no_mshrs                  0                       # number of cycles access was blocked
system.l2.blocked_cycles::no_targets                0                       # number of cycles access was blocked
system.l2.blocked::no_mshrs                         0                       # number of cycles access was blocked
system.l2.blocked::no_targets                       0                       # number of cycles access was blocked
system.l2.avg_blocked_cycles::no_mshrs            nan                       # average number of cycles each access was blocked
system.l2.avg_blocked_cycles::no_targets          nan                       # average number of cycles each access was blocked
system.l2.ReadExReq_mshr_misses::cpu.data           77                       # number of ReadExReq MSHR misses
system.l2.ReadExReq_mshr_misses::total             77                       # number of ReadExReq MSHR misses
system.l2.ReadCleanReq_mshr_misses::cpu.inst          229                       # number of ReadCleanReq MSHR misses
system.l2.ReadCleanReq_mshr_misses::total          229                       # number of ReadCleanReq MSHR misses
system.l2.ReadSharedReq_mshr_misses::cpu.data           56                       # number of ReadSharedReq MSHR misses
system.l2.ReadSharedReq_mshr_misses::total           56                       # number of ReadSharedReq MSHR misses
system.l2.demand_mshr_misses::cpu.inst            229                       # number of demand (read+write) MSHR misses
system.l2.demand_mshr_misses::cpu.data            133                       # number of demand (read+write) MSHR misses
system.l2.demand_mshr_misses::total               362                       # number of demand (read+write) MSHR misses
system.l2.overall_mshr_misses::cpu.inst           229                       # number of overall MSHR misses
system.l2.overall_mshr_misses::cpu.data           133                       # number of overall MSHR misses
system.l2.overall_mshr_misses::total              362                       # number of overall MSHR misses
system.l2.ReadExReq_mshr_miss_latency::cpu.data     11240500                       # number of ReadExReq MSHR miss cycles
system.l2.ReadExReq_mshr_miss_latency::total     11240500                       # number of ReadExReq MSHR miss cycles
system.l2.ReadCleanReq_mshr_miss_latency::cpu.inst     38975500                       # number of ReadCleanReq MSHR miss cycles
system.l2.ReadCleanReq_mshr_miss_latency::total     38975500                       # number of ReadCleanReq MSHR miss cycles
system.l2.ReadSharedReq_mshr_miss_latency::cpu.data     13518000                       # number of ReadSharedReq MSHR miss cycles
system.l2.ReadSharedReq_mshr_miss_latency::total     13518000                       # number of ReadSharedReq MSHR miss cycles
system.l2.demand_mshr_miss_latency::cpu.inst     38975500                       # number of demand (read+write) MSHR miss cycles
system.l2.demand_mshr_miss_latency::cpu.data     24758500                       # number of demand (read+write) MSHR miss cycles
system.l2.demand_mshr_miss_latency::total     63734000                       # number of demand (read+write) MSHR miss cycles
system.l2.overall_mshr_miss_latency::cpu.inst     38975500                       # number of overall MSHR miss cycles
system.l2.overall_mshr_miss_latency::cpu.data     24758500                       # number of overall MSHR miss cycles
system.l2.overall_mshr_miss_latency::total     63734000                       # number of overall MSHR miss cycles
system.l2.ReadExReq_mshr_miss_rate::cpu.data            1                       # mshr miss rate for ReadExReq accesses
system.l2.ReadExReq_mshr_miss_rate::total            1                       # mshr miss rate for ReadExReq accesses
system.l2.ReadCleanReq_mshr_miss_rate::cpu.inst     0.995652                       # mshr miss rate for ReadCleanReq accesses
system.l2.ReadCleanReq_mshr_miss_rate::total     0.995652                       # mshr miss rate for ReadCleanReq accesses
system.l2.ReadSharedReq_mshr_miss_rate::cpu.data            1                       # mshr miss rate for ReadSharedReq accesses
system.l2.ReadSharedReq_mshr_miss_rate::total            1                       # mshr miss rate for ReadSharedReq accesses
system.l2.demand_mshr_miss_rate::cpu.inst     0.995652                       # mshr miss rate for demand accesses
system.l2.demand_mshr_miss_rate::cpu.data            1                       # mshr miss rate for demand accesses
system.l2.demand_mshr_miss_rate::total       0.997245                       # mshr miss rate for demand accesses
system.l2.overall_mshr_miss_rate::cpu.inst     0.995652                       # mshr miss rate for overall accesses
system.l2.overall_mshr_miss_rate::cpu.data            1                       # mshr miss rate for overall accesses
system.l2.overall_mshr_miss_rate::total      0.997245                       # mshr miss rate for overall accesses
system.l2.ReadExReq_avg_mshr_miss_latency::cpu.data 145980.519481                       # average ReadExReq mshr miss latency
system.l2.ReadExReq_avg_mshr_miss_latency::total 145980.519481                       # average ReadExReq mshr miss latency
system.l2.ReadCleanReq_avg_mshr_miss_latency::cpu.inst 170198.689956                       # average ReadCleanReq mshr miss latency
system.l2.ReadCleanReq_avg_mshr_miss_latency::total 170198.689956                       # average ReadCleanReq mshr miss latency
system.l2.ReadSharedReq_avg_mshr_miss_latency::cpu.data 241392.857143                       # average ReadSharedReq mshr miss latency
system.l2.ReadSharedReq_avg_mshr_miss_latency::total 241392.857143                       # average ReadSharedReq mshr miss latency
system.l2.demand_avg_mshr_miss_latency::cpu.inst 170198.689956                       # average overall mshr miss latency
system.l2.demand_avg_mshr_miss_latency::cpu.data 186154.135338                       # average overall mshr miss latency
system.l2.demand_avg_mshr_miss_latency::total 176060.773481                       # average overall mshr miss latency
system.l2.overall_avg_mshr_miss_latency::cpu.inst 170198.689956                       # average overall mshr miss latency
system.l2.overall_avg_mshr_miss_latency::cpu.data 186154.135338                       # average overall mshr miss latency
system.l2.overall_avg_mshr_miss_latency::total 176060.773481                       # average overall mshr miss latency
system.l2.replacements                              0                       # number of replacements
system.membus.snoop_filter.tot_requests           362                       # Total number of requests made to the snoop filter.
system.membus.snoop_filter.hit_single_requests            0                       # Number of requests hitting in the snoop filter with a single holder of the requested data.
system.membus.snoop_filter.hit_multi_requests            0                       # Number of requests hitting in the snoop filter with multiple (>1) holders of the requested data.
system.membus.snoop_filter.tot_snoops               0                       # Total number of snoops made to the snoop filter.
system.membus.snoop_filter.hit_single_snoops            0                       # Number of snoops hitting in the snoop filter with a single holder of the requested data.
system.membus.snoop_filter.hit_multi_snoops            0                       # Number of snoops hitting in the snoop filter with multiple (>1) holders of the requested data.
system.membus.pwrStateResidencyTicks::UNDEFINED     77362500                       # Cumulative time (in ticks) in various power states
system.membus.trans_dist::ReadResp                285                       # Transaction distribution
system.membus.trans_dist::ReadExReq                77                       # Transaction distribution
system.membus.trans_dist::ReadExResp               77                       # Transaction distribution
system.membus.trans_dist::ReadSharedReq           285                       # Transaction distribution
system.membus.pkt_count_system.l2.mem_side::system.mem_ctrls.port          724                       # Packet count per connected master and slave (bytes)
system.membus.pkt_count_system.l2.mem_side::total          724                       # Packet count per connected master and slave (bytes)
system.membus.pkt_count::total                    724                       # Packet count per connected master and slave (bytes)
system.membus.pkt_size_system.l2.mem_side::system.mem_ctrls.port        23168                       # Cumulative packet size per connected master and slave (bytes)
system.membus.pkt_size_system.l2.mem_side::total        23168                       # Cumulative packet size per connected master and slave (bytes)
system.membus.pkt_size::total                   23168                       # Cumulative packet size per connected master and slave (bytes)
system.membus.snoops                                0                       # Total snoops (count)
system.membus.snoopTraffic                          0                       # Total snoop traffic (bytes)
system.membus.snoop_fanout::samples               362                       # Request fanout histogram
system.membus.snoop_fanout::mean                    0                       # Request fanout histogram
system.membus.snoop_fanout::stdev                   0                       # Request fanout histogram
system.membus.snoop_fanout::underflows              0      0.00%      0.00% # Request fanout histogram
system.membus.snoop_fanout::0                     362    100.00%    100.00% # Request fanout histogram
system.membus.snoop_fanout::1                       0      0.00%    100.00% # Request fanout histogram
system.membus.snoop_fanout::overflows               0      0.00%    100.00% # Request fanout histogram
system.membus.snoop_fanout::min_value               0                       # Request fanout histogram
system.membus.snoop_fanout::max_value               0                       # Request fanout histogram
system.membus.snoop_fanout::total                 362                       # Request fanout histogram
system.membus.reqLayer2.occupancy              363000                       # Layer occupancy (ticks)
system.membus.reqLayer2.utilization               0.5                       # Layer utilization (%)
system.membus.respLayer1.occupancy            1811000                       # Layer occupancy (ticks)
system.membus.respLayer1.utilization              2.3                       # Layer utilization (%)
system.tol2bus.snoop_filter.tot_requests          376                       # Total number of requests made to the snoop filter.
system.tol2bus.snoop_filter.hit_single_requests           14                       # Number of requests hitting in the snoop filter with a single holder of the requested data.
system.tol2bus.snoop_filter.hit_multi_requests            0                       # Number of requests hitting in the snoop filter with multiple (>1) holders of the requested data.
system.tol2bus.snoop_filter.tot_snoops              0                       # Total number of snoops made to the snoop filter.
system.tol2bus.snoop_filter.hit_single_snoops            0                       # Number of snoops hitting in the snoop filter with a single holder of the requested data.
system.tol2bus.snoop_filter.hit_multi_snoops            0                       # Number of snoops hitting in the snoop filter with multiple (>1) holders of the requested data.
system.tol2bus.pwrStateResidencyTicks::UNDEFINED     77362500                       # Cumulative time (in ticks) in various power states
system.tol2bus.trans_dist::ReadResp               286                       # Transaction distribution
system.tol2bus.trans_dist::WritebackClean           13                       # Transaction distribution
system.tol2bus.trans_dist::ReadExReq               77                       # Transaction distribution
system.tol2bus.trans_dist::ReadExResp              77                       # Transaction distribution
system.tol2bus.trans_dist::ReadCleanReq           230                       # Transaction distribution
system.tol2bus.trans_dist::ReadSharedReq           56                       # Transaction distribution
system.tol2bus.pkt_count_system.cpu.icache.mem_side::system.l2.cpu_side          473                       # Packet count per connected master and slave (bytes)
system.tol2bus.pkt_count_system.cpu.dcache.mem_side::system.l2.cpu_side          266                       # Packet count per connected master and slave (bytes)
system.tol2bus.pkt_count::total                   739                       # Packet count per connected master and slave (bytes)
system.tol2bus.pkt_size_system.cpu.icache.mem_side::system.l2.cpu_side        15552                       # Cumulative packet size per connected master and slave (bytes)
system.tol2bus.pkt_size_system.cpu.dcache.mem_side::system.l2.cpu_side         8512                       # Cumulative packet size per connected master and slave (bytes)
system.tol2bus.pkt_size::total                  24064                       # Cumulative packet size per connected master and slave (bytes)
system.tol2bus.snoops                               0                       # Total snoops (count)
system.tol2bus.snoopTraffic                         0                       # Total snoop traffic (bytes)
system.tol2bus.snoop_fanout::samples              363                       # Request fanout histogram
system.tol2bus.snoop_fanout::mean            0.002755                       # Request fanout histogram
system.tol2bus.snoop_fanout::stdev           0.052486                       # Request fanout histogram
system.tol2bus.snoop_fanout::underflows             0      0.00%      0.00% # Request fanout histogram
system.tol2bus.snoop_fanout::0                    362     99.72%     99.72% # Request fanout histogram
system.tol2bus.snoop_fanout::1                      1      0.28%    100.00% # Request fanout histogram
system.tol2bus.snoop_fanout::2                      0      0.00%    100.00% # Request fanout histogram
system.tol2bus.snoop_fanout::3                      0      0.00%    100.00% # Request fanout histogram
system.tol2bus.snoop_fanout::4                      0      0.00%    100.00% # Request fanout histogram
system.tol2bus.snoop_fanout::overflows              0      0.00%    100.00% # Request fanout histogram
system.tol2bus.snoop_fanout::min_value              0                       # Request fanout histogram
system.tol2bus.snoop_fanout::max_value              1                       # Request fanout histogram
system.tol2bus.snoop_fanout::total                363                       # Request fanout histogram
system.tol2bus.reqLayer0.occupancy             201000                       # Layer occupancy (ticks)
system.tol2bus.reqLayer0.utilization              0.3                       # Layer utilization (%)
system.tol2bus.respLayer0.occupancy            345000                       # Layer occupancy (ticks)
system.tol2bus.respLayer0.utilization             0.4                       # Layer utilization (%)
system.tol2bus.respLayer1.occupancy            199500                       # Layer occupancy (ticks)
system.tol2bus.respLayer1.utilization             0.3                       # Layer utilization (%)

---------- End Simulation Statistics   ----------
